! ==============================================
! cenario_EV.dss — generado automaticamente
! Penetracion EV/CS: 25.0%
! ==============================================

New Loadshape.CurvaEV_EV_0 npts=24 interval=1 mult=[0.15000 0.10000 0.08000 0.08000 0.10000 0.20000 0.50000 0.80000 1.00000 0.90000 0.70000 0.50000 0.40000 0.40000 0.45000 0.50000 0.60000 0.80000 1.00000 0.95000 0.80000 0.60000 0.40000 0.25000]
New Loadshape.CurvaEV_EV_1 npts=24 interval=1 mult=[0.15000 0.10000 0.08000 0.08000 0.10000 0.20000 0.50000 0.80000 1.00000 0.90000 0.70000 0.50000 0.40000 0.40000 0.45000 0.50000 0.60000 0.80000 1.00000 0.95000 0.80000 0.60000 0.40000 0.25000]
New Loadshape.CurvaEV_EV_2 npts=24 interval=1 mult=[0.15000 0.10000 0.08000 0.08000 0.10000 0.20000 0.50000 0.80000 1.00000 0.90000 0.70000 0.50000 0.40000 0.40000 0.45000 0.50000 0.60000 0.80000 1.00000 0.95000 0.80000 0.60000 0.40000 0.25000]
New Loadshape.CurvaEV_EV_3 npts=24 interval=1 mult=[0.15000 0.10000 0.08000 0.08000 0.10000 0.20000 0.50000 0.80000 1.00000 0.90000 0.70000 0.50000 0.40000 0.40000 0.45000 0.50000 0.60000 0.80000 1.00000 0.95000 0.80000 0.60000 0.40000 0.25000]
New Loadshape.CurvaEV_EV_4 npts=24 interval=1 mult=[0.15000 0.10000 0.08000 0.08000 0.10000 0.20000 0.50000 0.80000 1.00000 0.90000 0.70000 0.50000 0.40000 0.40000 0.45000 0.50000 0.60000 0.80000 1.00000 0.95000 0.80000 0.60000 0.40000 0.25000]
New Loadshape.CurvaEV_EV_5 npts=24 interval=1 mult=[0.15000 0.10000 0.08000 0.08000 0.10000 0.20000 0.50000 0.80000 1.00000 0.90000 0.70000 0.50000 0.40000 0.40000 0.45000 0.50000 0.60000 0.80000 1.00000 0.95000 0.80000 0.60000 0.40000 0.25000]
New Loadshape.CurvaEV_EV_6 npts=24 interval=1 mult=[0.15000 0.10000 0.08000 0.08000 0.10000 0.20000 0.50000 0.80000 1.00000 0.90000 0.70000 0.50000 0.40000 0.40000 0.45000 0.50000 0.60000 0.80000 1.00000 0.95000 0.80000 0.60000 0.40000 0.25000]

New Load.EV_0 bus1=b11 phases=3 conn=wye kv=13.800 kw=600.00 pf=0.980 model=1 daily=CurvaEV_EV_0
New Load.EV_1 bus1=b6 phases=3 conn=wye kv=13.800 kw=2400.00 pf=0.980 model=1 daily=CurvaEV_EV_1
New Load.EV_2 bus1=b16 phases=3 conn=wye kv=13.800 kw=1200.00 pf=0.980 model=1 daily=CurvaEV_EV_2
New Load.EV_3 bus1=b16 phases=3 conn=wye kv=13.800 kw=2400.00 pf=0.980 model=1 daily=CurvaEV_EV_3
New Load.EV_4 bus1=b10 phases=3 conn=wye kv=13.800 kw=2400.00 pf=0.980 model=1 daily=CurvaEV_EV_4
New Load.EV_5 bus1=b9 phases=3 conn=wye kv=13.800 kw=1200.00 pf=0.980 model=1 daily=CurvaEV_EV_5
New Load.EV_6 bus1=b12 phases=3 conn=wye kv=13.800 kw=1200.00 pf=0.980 model=1 daily=CurvaEV_EV_6
