! ==============================================
! cenario_BESS.dss — generado automaticamente
! Penetracion BESS: 50.0%
! ==============================================

New Loadshape.CurvaBat_Bat_0 npts=24 interval=1 mult=[0.00000 0.00000 0.00000 0.00000 0.00000 0.00000 0.00000 0.00000 0.00000 -0.40000 -0.70000 -1.00000 -0.70000 -0.40000 0.00000 0.00000 0.00000 0.40000 0.70000 1.00000 0.70000 0.40000 0.00000 0.00000]
New Loadshape.CurvaBat_Bat_1 npts=24 interval=1 mult=[0.00000 0.00000 0.00000 0.00000 0.00000 0.00000 0.00000 0.00000 0.00000 -0.40000 -0.70000 -1.00000 -0.70000 -0.40000 0.00000 0.00000 0.00000 0.40000 0.70000 1.00000 0.70000 0.40000 0.00000 0.00000]
New Loadshape.CurvaBat_Bat_2 npts=24 interval=1 mult=[0.00000 0.00000 0.00000 0.00000 0.00000 0.00000 0.00000 0.00000 0.00000 -0.40000 -0.70000 -1.00000 -0.70000 -0.40000 0.00000 0.00000 0.00000 0.40000 0.70000 1.00000 0.70000 0.40000 0.00000 0.00000]
New Loadshape.CurvaBat_Bat_3 npts=24 interval=1 mult=[0.00000 0.00000 0.00000 0.00000 0.00000 0.00000 0.00000 0.00000 0.00000 -0.40000 -0.70000 -1.00000 -0.70000 -0.40000 0.00000 0.00000 0.00000 0.40000 0.70000 1.00000 0.70000 0.40000 0.00000 0.00000]
New Loadshape.CurvaBat_Bat_4 npts=24 interval=1 mult=[0.00000 0.00000 0.00000 0.00000 0.00000 0.00000 0.00000 0.00000 0.00000 -0.40000 -0.70000 -1.00000 -0.70000 -0.40000 0.00000 0.00000 0.00000 0.40000 0.70000 1.00000 0.70000 0.40000 0.00000 0.00000]
New Loadshape.CurvaBat_Bat_5 npts=24 interval=1 mult=[0.00000 0.00000 0.00000 0.00000 0.00000 0.00000 0.00000 0.00000 0.00000 -0.40000 -0.70000 -1.00000 -0.70000 -0.40000 0.00000 0.00000 0.00000 0.40000 0.70000 1.00000 0.70000 0.40000 0.00000 0.00000]
New Loadshape.CurvaBat_Bat_6 npts=24 interval=1 mult=[0.00000 0.00000 0.00000 0.00000 0.00000 0.00000 0.00000 0.00000 0.00000 -0.40000 -0.70000 -1.00000 -0.70000 -0.40000 0.00000 0.00000 0.00000 0.40000 0.70000 1.00000 0.70000 0.40000 0.00000 0.00000]
New Loadshape.CurvaBat_Bat_7 npts=24 interval=1 mult=[0.00000 0.00000 0.00000 0.00000 0.00000 0.00000 0.00000 0.00000 0.00000 -0.40000 -0.70000 -1.00000 -0.70000 -0.40000 0.00000 0.00000 0.00000 0.40000 0.70000 1.00000 0.70000 0.40000 0.00000 0.00000]
New Loadshape.CurvaBat_Bat_8 npts=24 interval=1 mult=[0.00000 0.00000 0.00000 0.00000 0.00000 0.00000 0.00000 0.00000 0.00000 -0.40000 -0.70000 -1.00000 -0.70000 -0.40000 0.00000 0.00000 0.00000 0.40000 0.70000 1.00000 0.70000 0.40000 0.00000 0.00000]
New Loadshape.CurvaBat_Bat_9 npts=24 interval=1 mult=[0.00000 0.00000 0.00000 0.00000 0.00000 0.00000 0.00000 0.00000 0.00000 -0.40000 -0.70000 -1.00000 -0.70000 -0.40000 0.00000 0.00000 0.00000 0.40000 0.70000 1.00000 0.70000 0.40000 0.00000 0.00000]
New Loadshape.CurvaBat_Bat_10 npts=24 interval=1 mult=[0.00000 0.00000 0.00000 0.00000 0.00000 0.00000 0.00000 0.00000 0.00000 -0.40000 -0.70000 -1.00000 -0.70000 -0.40000 0.00000 0.00000 0.00000 0.40000 0.70000 1.00000 0.70000 0.40000 0.00000 0.00000]
New Loadshape.CurvaBat_Bat_11 npts=24 interval=1 mult=[0.00000 0.00000 0.00000 0.00000 0.00000 0.00000 0.00000 0.00000 0.00000 -0.40000 -0.70000 -1.00000 -0.70000 -0.40000 0.00000 0.00000 0.00000 0.40000 0.70000 1.00000 0.70000 0.40000 0.00000 0.00000]
New Loadshape.CurvaBat_Bat_12 npts=24 interval=1 mult=[0.00000 0.00000 0.00000 0.00000 0.00000 0.00000 0.00000 0.00000 0.00000 -0.40000 -0.70000 -1.00000 -0.70000 -0.40000 0.00000 0.00000 0.00000 0.40000 0.70000 1.00000 0.70000 0.40000 0.00000 0.00000]
New Loadshape.CurvaBat_Bat_13 npts=24 interval=1 mult=[0.00000 0.00000 0.00000 0.00000 0.00000 0.00000 0.00000 0.00000 0.00000 -0.40000 -0.70000 -1.00000 -0.70000 -0.40000 0.00000 0.00000 0.00000 0.40000 0.70000 1.00000 0.70000 0.40000 0.00000 0.00000]
New Loadshape.CurvaBat_Bat_14 npts=24 interval=1 mult=[0.00000 0.00000 0.00000 0.00000 0.00000 0.00000 0.00000 0.00000 0.00000 -0.40000 -0.70000 -1.00000 -0.70000 -0.40000 0.00000 0.00000 0.00000 0.40000 0.70000 1.00000 0.70000 0.40000 0.00000 0.00000]
New Loadshape.CurvaBat_Bat_15 npts=24 interval=1 mult=[0.00000 0.00000 0.00000 0.00000 0.00000 0.00000 0.00000 0.00000 0.00000 -0.40000 -0.70000 -1.00000 -0.70000 -0.40000 0.00000 0.00000 0.00000 0.40000 0.70000 1.00000 0.70000 0.40000 0.00000 0.00000]
New Loadshape.CurvaBat_Bat_16 npts=24 interval=1 mult=[0.00000 0.00000 0.00000 0.00000 0.00000 0.00000 0.00000 0.00000 0.00000 -0.40000 -0.70000 -1.00000 -0.70000 -0.40000 0.00000 0.00000 0.00000 0.40000 0.70000 1.00000 0.70000 0.40000 0.00000 0.00000]
New Loadshape.CurvaBat_Bat_17 npts=24 interval=1 mult=[0.00000 0.00000 0.00000 0.00000 0.00000 0.00000 0.00000 0.00000 0.00000 -0.40000 -0.70000 -1.00000 -0.70000 -0.40000 0.00000 0.00000 0.00000 0.40000 0.70000 1.00000 0.70000 0.40000 0.00000 0.00000]
New Loadshape.CurvaBat_Bat_18 npts=24 interval=1 mult=[0.00000 0.00000 0.00000 0.00000 0.00000 0.00000 0.00000 0.00000 0.00000 -0.40000 -0.70000 -1.00000 -0.70000 -0.40000 0.00000 0.00000 0.00000 0.40000 0.70000 1.00000 0.70000 0.40000 0.00000 0.00000]
New Loadshape.CurvaBat_Bat_19 npts=24 interval=1 mult=[0.00000 0.00000 0.00000 0.00000 0.00000 0.00000 0.00000 0.00000 0.00000 -0.40000 -0.70000 -1.00000 -0.70000 -0.40000 0.00000 0.00000 0.00000 0.40000 0.70000 1.00000 0.70000 0.40000 0.00000 0.00000]
New Loadshape.CurvaBat_Bat_20 npts=24 interval=1 mult=[0.00000 0.00000 0.00000 0.00000 0.00000 0.00000 0.00000 0.00000 0.00000 -0.40000 -0.70000 -1.00000 -0.70000 -0.40000 0.00000 0.00000 0.00000 0.40000 0.70000 1.00000 0.70000 0.40000 0.00000 0.00000]
New Loadshape.CurvaBat_Bat_21 npts=24 interval=1 mult=[0.00000 0.00000 0.00000 0.00000 0.00000 0.00000 0.00000 0.00000 0.00000 -0.40000 -0.70000 -1.00000 -0.70000 -0.40000 0.00000 0.00000 0.00000 0.40000 0.70000 1.00000 0.70000 0.40000 0.00000 0.00000]
New Loadshape.CurvaBat_Bat_22 npts=24 interval=1 mult=[0.00000 0.00000 0.00000 0.00000 0.00000 0.00000 0.00000 0.00000 0.00000 -0.40000 -0.70000 -1.00000 -0.70000 -0.40000 0.00000 0.00000 0.00000 0.40000 0.70000 1.00000 0.70000 0.40000 0.00000 0.00000]
New Loadshape.CurvaBat_Bat_23 npts=24 interval=1 mult=[0.00000 0.00000 0.00000 0.00000 0.00000 0.00000 0.00000 0.00000 0.00000 -0.40000 -0.70000 -1.00000 -0.70000 -0.40000 0.00000 0.00000 0.00000 0.40000 0.70000 1.00000 0.70000 0.40000 0.00000 0.00000]
New Loadshape.CurvaBat_Bat_24 npts=24 interval=1 mult=[0.00000 0.00000 0.00000 0.00000 0.00000 0.00000 0.00000 0.00000 0.00000 -0.40000 -0.70000 -1.00000 -0.70000 -0.40000 0.00000 0.00000 0.00000 0.40000 0.70000 1.00000 0.70000 0.40000 0.00000 0.00000]
New Loadshape.CurvaBat_Bat_25 npts=24 interval=1 mult=[0.00000 0.00000 0.00000 0.00000 0.00000 0.00000 0.00000 0.00000 0.00000 -0.40000 -0.70000 -1.00000 -0.70000 -0.40000 0.00000 0.00000 0.00000 0.40000 0.70000 1.00000 0.70000 0.40000 0.00000 0.00000]
New Loadshape.CurvaBat_Bat_26 npts=24 interval=1 mult=[0.00000 0.00000 0.00000 0.00000 0.00000 0.00000 0.00000 0.00000 0.00000 -0.40000 -0.70000 -1.00000 -0.70000 -0.40000 0.00000 0.00000 0.00000 0.40000 0.70000 1.00000 0.70000 0.40000 0.00000 0.00000]
New Loadshape.CurvaBat_Bat_27 npts=24 interval=1 mult=[0.00000 0.00000 0.00000 0.00000 0.00000 0.00000 0.00000 0.00000 0.00000 -0.40000 -0.70000 -1.00000 -0.70000 -0.40000 0.00000 0.00000 0.00000 0.40000 0.70000 1.00000 0.70000 0.40000 0.00000 0.00000]
New Loadshape.CurvaBat_Bat_28 npts=24 interval=1 mult=[0.00000 0.00000 0.00000 0.00000 0.00000 0.00000 0.00000 0.00000 0.00000 -0.40000 -0.70000 -1.00000 -0.70000 -0.40000 0.00000 0.00000 0.00000 0.40000 0.70000 1.00000 0.70000 0.40000 0.00000 0.00000]
New Loadshape.CurvaBat_Bat_29 npts=24 interval=1 mult=[0.00000 0.00000 0.00000 0.00000 0.00000 0.00000 0.00000 0.00000 0.00000 -0.40000 -0.70000 -1.00000 -0.70000 -0.40000 0.00000 0.00000 0.00000 0.40000 0.70000 1.00000 0.70000 0.40000 0.00000 0.00000]
New Loadshape.CurvaBat_Bat_30 npts=24 interval=1 mult=[0.00000 0.00000 0.00000 0.00000 0.00000 0.00000 0.00000 0.00000 0.00000 -0.40000 -0.70000 -1.00000 -0.70000 -0.40000 0.00000 0.00000 0.00000 0.40000 0.70000 1.00000 0.70000 0.40000 0.00000 0.00000]
New Loadshape.CurvaBat_Bat_31 npts=24 interval=1 mult=[0.00000 0.00000 0.00000 0.00000 0.00000 0.00000 0.00000 0.00000 0.00000 -0.40000 -0.70000 -1.00000 -0.70000 -0.40000 0.00000 0.00000 0.00000 0.40000 0.70000 1.00000 0.70000 0.40000 0.00000 0.00000]
New Loadshape.CurvaBat_Bat_32 npts=24 interval=1 mult=[0.00000 0.00000 0.00000 0.00000 0.00000 0.00000 0.00000 0.00000 0.00000 -0.40000 -0.70000 -1.00000 -0.70000 -0.40000 0.00000 0.00000 0.00000 0.40000 0.70000 1.00000 0.70000 0.40000 0.00000 0.00000]
New Loadshape.CurvaBat_Bat_33 npts=24 interval=1 mult=[0.00000 0.00000 0.00000 0.00000 0.00000 0.00000 0.00000 0.00000 0.00000 -0.40000 -0.70000 -1.00000 -0.70000 -0.40000 0.00000 0.00000 0.00000 0.40000 0.70000 1.00000 0.70000 0.40000 0.00000 0.00000]
New Loadshape.CurvaBat_Bat_34 npts=24 interval=1 mult=[0.00000 0.00000 0.00000 0.00000 0.00000 0.00000 0.00000 0.00000 0.00000 -0.40000 -0.70000 -1.00000 -0.70000 -0.40000 0.00000 0.00000 0.00000 0.40000 0.70000 1.00000 0.70000 0.40000 0.00000 0.00000]
New Loadshape.CurvaBat_Bat_35 npts=24 interval=1 mult=[0.00000 0.00000 0.00000 0.00000 0.00000 0.00000 0.00000 0.00000 0.00000 -0.40000 -0.70000 -1.00000 -0.70000 -0.40000 0.00000 0.00000 0.00000 0.40000 0.70000 1.00000 0.70000 0.40000 0.00000 0.00000]
New Loadshape.CurvaBat_Bat_36 npts=24 interval=1 mult=[0.00000 0.00000 0.00000 0.00000 0.00000 0.00000 0.00000 0.00000 0.00000 -0.40000 -0.70000 -1.00000 -0.70000 -0.40000 0.00000 0.00000 0.00000 0.40000 0.70000 1.00000 0.70000 0.40000 0.00000 0.00000]
New Loadshape.CurvaBat_Bat_37 npts=24 interval=1 mult=[0.00000 0.00000 0.00000 0.00000 0.00000 0.00000 0.00000 0.00000 0.00000 -0.40000 -0.70000 -1.00000 -0.70000 -0.40000 0.00000 0.00000 0.00000 0.40000 0.70000 1.00000 0.70000 0.40000 0.00000 0.00000]
New Loadshape.CurvaBat_Bat_38 npts=24 interval=1 mult=[0.00000 0.00000 0.00000 0.00000 0.00000 0.00000 0.00000 0.00000 0.00000 -0.40000 -0.70000 -1.00000 -0.70000 -0.40000 0.00000 0.00000 0.00000 0.40000 0.70000 1.00000 0.70000 0.40000 0.00000 0.00000]
New Loadshape.CurvaBat_Bat_39 npts=24 interval=1 mult=[0.00000 0.00000 0.00000 0.00000 0.00000 0.00000 0.00000 0.00000 0.00000 -0.40000 -0.70000 -1.00000 -0.70000 -0.40000 0.00000 0.00000 0.00000 0.40000 0.70000 1.00000 0.70000 0.40000 0.00000 0.00000]
New Loadshape.CurvaBat_Bat_40 npts=24 interval=1 mult=[0.00000 0.00000 0.00000 0.00000 0.00000 0.00000 0.00000 0.00000 0.00000 -0.40000 -0.70000 -1.00000 -0.70000 -0.40000 0.00000 0.00000 0.00000 0.40000 0.70000 1.00000 0.70000 0.40000 0.00000 0.00000]
New Loadshape.CurvaBat_Bat_41 npts=24 interval=1 mult=[0.00000 0.00000 0.00000 0.00000 0.00000 0.00000 0.00000 0.00000 0.00000 -0.40000 -0.70000 -1.00000 -0.70000 -0.40000 0.00000 0.00000 0.00000 0.40000 0.70000 1.00000 0.70000 0.40000 0.00000 0.00000]
New Loadshape.CurvaBat_Bat_42 npts=24 interval=1 mult=[0.00000 0.00000 0.00000 0.00000 0.00000 0.00000 0.00000 0.00000 0.00000 -0.40000 -0.70000 -1.00000 -0.70000 -0.40000 0.00000 0.00000 0.00000 0.40000 0.70000 1.00000 0.70000 0.40000 0.00000 0.00000]
New Loadshape.CurvaBat_Bat_43 npts=24 interval=1 mult=[0.00000 0.00000 0.00000 0.00000 0.00000 0.00000 0.00000 0.00000 0.00000 -0.40000 -0.70000 -1.00000 -0.70000 -0.40000 0.00000 0.00000 0.00000 0.40000 0.70000 1.00000 0.70000 0.40000 0.00000 0.00000]
New Loadshape.CurvaBat_Bat_44 npts=24 interval=1 mult=[0.00000 0.00000 0.00000 0.00000 0.00000 0.00000 0.00000 0.00000 0.00000 -0.40000 -0.70000 -1.00000 -0.70000 -0.40000 0.00000 0.00000 0.00000 0.40000 0.70000 1.00000 0.70000 0.40000 0.00000 0.00000]
New Loadshape.CurvaBat_Bat_45 npts=24 interval=1 mult=[0.00000 0.00000 0.00000 0.00000 0.00000 0.00000 0.00000 0.00000 0.00000 -0.40000 -0.70000 -1.00000 -0.70000 -0.40000 0.00000 0.00000 0.00000 0.40000 0.70000 1.00000 0.70000 0.40000 0.00000 0.00000]
New Loadshape.CurvaBat_Bat_46 npts=24 interval=1 mult=[0.00000 0.00000 0.00000 0.00000 0.00000 0.00000 0.00000 0.00000 0.00000 -0.40000 -0.70000 -1.00000 -0.70000 -0.40000 0.00000 0.00000 0.00000 0.40000 0.70000 1.00000 0.70000 0.40000 0.00000 0.00000]
New Loadshape.CurvaBat_Bat_47 npts=24 interval=1 mult=[0.00000 0.00000 0.00000 0.00000 0.00000 0.00000 0.00000 0.00000 0.00000 -0.40000 -0.70000 -1.00000 -0.70000 -0.40000 0.00000 0.00000 0.00000 0.40000 0.70000 1.00000 0.70000 0.40000 0.00000 0.00000]
New Loadshape.CurvaBat_Bat_48 npts=24 interval=1 mult=[0.00000 0.00000 0.00000 0.00000 0.00000 0.00000 0.00000 0.00000 0.00000 -0.40000 -0.70000 -1.00000 -0.70000 -0.40000 0.00000 0.00000 0.00000 0.40000 0.70000 1.00000 0.70000 0.40000 0.00000 0.00000]
New Loadshape.CurvaBat_Bat_49 npts=24 interval=1 mult=[0.00000 0.00000 0.00000 0.00000 0.00000 0.00000 0.00000 0.00000 0.00000 -0.40000 -0.70000 -1.00000 -0.70000 -0.40000 0.00000 0.00000 0.00000 0.40000 0.70000 1.00000 0.70000 0.40000 0.00000 0.00000]
New Loadshape.CurvaBat_Bat_50 npts=24 interval=1 mult=[0.00000 0.00000 0.00000 0.00000 0.00000 0.00000 0.00000 0.00000 0.00000 -0.40000 -0.70000 -1.00000 -0.70000 -0.40000 0.00000 0.00000 0.00000 0.40000 0.70000 1.00000 0.70000 0.40000 0.00000 0.00000]
New Loadshape.CurvaBat_Bat_51 npts=24 interval=1 mult=[0.00000 0.00000 0.00000 0.00000 0.00000 0.00000 0.00000 0.00000 0.00000 -0.40000 -0.70000 -1.00000 -0.70000 -0.40000 0.00000 0.00000 0.00000 0.40000 0.70000 1.00000 0.70000 0.40000 0.00000 0.00000]
New Loadshape.CurvaBat_Bat_52 npts=24 interval=1 mult=[0.00000 0.00000 0.00000 0.00000 0.00000 0.00000 0.00000 0.00000 0.00000 -0.40000 -0.70000 -1.00000 -0.70000 -0.40000 0.00000 0.00000 0.00000 0.40000 0.70000 1.00000 0.70000 0.40000 0.00000 0.00000]
New Loadshape.CurvaBat_Bat_53 npts=24 interval=1 mult=[0.00000 0.00000 0.00000 0.00000 0.00000 0.00000 0.00000 0.00000 0.00000 -0.40000 -0.70000 -1.00000 -0.70000 -0.40000 0.00000 0.00000 0.00000 0.40000 0.70000 1.00000 0.70000 0.40000 0.00000 0.00000]
New Loadshape.CurvaBat_Bat_54 npts=24 interval=1 mult=[0.00000 0.00000 0.00000 0.00000 0.00000 0.00000 0.00000 0.00000 0.00000 -0.40000 -0.70000 -1.00000 -0.70000 -0.40000 0.00000 0.00000 0.00000 0.40000 0.70000 1.00000 0.70000 0.40000 0.00000 0.00000]
New Loadshape.CurvaBat_Bat_55 npts=24 interval=1 mult=[0.00000 0.00000 0.00000 0.00000 0.00000 0.00000 0.00000 0.00000 0.00000 -0.40000 -0.70000 -1.00000 -0.70000 -0.40000 0.00000 0.00000 0.00000 0.40000 0.70000 1.00000 0.70000 0.40000 0.00000 0.00000]
New Loadshape.CurvaBat_Bat_56 npts=24 interval=1 mult=[0.00000 0.00000 0.00000 0.00000 0.00000 0.00000 0.00000 0.00000 0.00000 -0.40000 -0.70000 -1.00000 -0.70000 -0.40000 0.00000 0.00000 0.00000 0.40000 0.70000 1.00000 0.70000 0.40000 0.00000 0.00000]
New Loadshape.CurvaBat_Bat_57 npts=24 interval=1 mult=[0.00000 0.00000 0.00000 0.00000 0.00000 0.00000 0.00000 0.00000 0.00000 -0.40000 -0.70000 -1.00000 -0.70000 -0.40000 0.00000 0.00000 0.00000 0.40000 0.70000 1.00000 0.70000 0.40000 0.00000 0.00000]
New Loadshape.CurvaBat_Bat_58 npts=24 interval=1 mult=[0.00000 0.00000 0.00000 0.00000 0.00000 0.00000 0.00000 0.00000 0.00000 -0.40000 -0.70000 -1.00000 -0.70000 -0.40000 0.00000 0.00000 0.00000 0.40000 0.70000 1.00000 0.70000 0.40000 0.00000 0.00000]
New Loadshape.CurvaBat_Bat_59 npts=24 interval=1 mult=[0.00000 0.00000 0.00000 0.00000 0.00000 0.00000 0.00000 0.00000 0.00000 -0.40000 -0.70000 -1.00000 -0.70000 -0.40000 0.00000 0.00000 0.00000 0.40000 0.70000 1.00000 0.70000 0.40000 0.00000 0.00000]
New Loadshape.CurvaBat_Bat_60 npts=24 interval=1 mult=[0.00000 0.00000 0.00000 0.00000 0.00000 0.00000 0.00000 0.00000 0.00000 -0.40000 -0.70000 -1.00000 -0.70000 -0.40000 0.00000 0.00000 0.00000 0.40000 0.70000 1.00000 0.70000 0.40000 0.00000 0.00000]
New Loadshape.CurvaBat_Bat_61 npts=24 interval=1 mult=[0.00000 0.00000 0.00000 0.00000 0.00000 0.00000 0.00000 0.00000 0.00000 -0.40000 -0.70000 -1.00000 -0.70000 -0.40000 0.00000 0.00000 0.00000 0.40000 0.70000 1.00000 0.70000 0.40000 0.00000 0.00000]
New Loadshape.CurvaBat_Bat_62 npts=24 interval=1 mult=[0.00000 0.00000 0.00000 0.00000 0.00000 0.00000 0.00000 0.00000 0.00000 -0.40000 -0.70000 -1.00000 -0.70000 -0.40000 0.00000 0.00000 0.00000 0.40000 0.70000 1.00000 0.70000 0.40000 0.00000 0.00000]
New Loadshape.CurvaBat_Bat_63 npts=24 interval=1 mult=[0.00000 0.00000 0.00000 0.00000 0.00000 0.00000 0.00000 0.00000 0.00000 -0.40000 -0.70000 -1.00000 -0.70000 -0.40000 0.00000 0.00000 0.00000 0.40000 0.70000 1.00000 0.70000 0.40000 0.00000 0.00000]
New Loadshape.CurvaBat_Bat_64 npts=24 interval=1 mult=[0.00000 0.00000 0.00000 0.00000 0.00000 0.00000 0.00000 0.00000 0.00000 -0.40000 -0.70000 -1.00000 -0.70000 -0.40000 0.00000 0.00000 0.00000 0.40000 0.70000 1.00000 0.70000 0.40000 0.00000 0.00000]
New Loadshape.CurvaBat_Bat_65 npts=24 interval=1 mult=[0.00000 0.00000 0.00000 0.00000 0.00000 0.00000 0.00000 0.00000 0.00000 -0.40000 -0.70000 -1.00000 -0.70000 -0.40000 0.00000 0.00000 0.00000 0.40000 0.70000 1.00000 0.70000 0.40000 0.00000 0.00000]
New Loadshape.CurvaBat_Bat_66 npts=24 interval=1 mult=[0.00000 0.00000 0.00000 0.00000 0.00000 0.00000 0.00000 0.00000 0.00000 -0.40000 -0.70000 -1.00000 -0.70000 -0.40000 0.00000 0.00000 0.00000 0.40000 0.70000 1.00000 0.70000 0.40000 0.00000 0.00000]
New Loadshape.CurvaBat_Bat_67 npts=24 interval=1 mult=[0.00000 0.00000 0.00000 0.00000 0.00000 0.00000 0.00000 0.00000 0.00000 -0.40000 -0.70000 -1.00000 -0.70000 -0.40000 0.00000 0.00000 0.00000 0.40000 0.70000 1.00000 0.70000 0.40000 0.00000 0.00000]
New Loadshape.CurvaBat_Bat_68 npts=24 interval=1 mult=[0.00000 0.00000 0.00000 0.00000 0.00000 0.00000 0.00000 0.00000 0.00000 -0.40000 -0.70000 -1.00000 -0.70000 -0.40000 0.00000 0.00000 0.00000 0.40000 0.70000 1.00000 0.70000 0.40000 0.00000 0.00000]
New Loadshape.CurvaBat_Bat_69 npts=24 interval=1 mult=[0.00000 0.00000 0.00000 0.00000 0.00000 0.00000 0.00000 0.00000 0.00000 -0.40000 -0.70000 -1.00000 -0.70000 -0.40000 0.00000 0.00000 0.00000 0.40000 0.70000 1.00000 0.70000 0.40000 0.00000 0.00000]
New Loadshape.CurvaBat_Bat_70 npts=24 interval=1 mult=[0.00000 0.00000 0.00000 0.00000 0.00000 0.00000 0.00000 0.00000 0.00000 -0.40000 -0.70000 -1.00000 -0.70000 -0.40000 0.00000 0.00000 0.00000 0.40000 0.70000 1.00000 0.70000 0.40000 0.00000 0.00000]
New Loadshape.CurvaBat_Bat_71 npts=24 interval=1 mult=[0.00000 0.00000 0.00000 0.00000 0.00000 0.00000 0.00000 0.00000 0.00000 -0.40000 -0.70000 -1.00000 -0.70000 -0.40000 0.00000 0.00000 0.00000 0.40000 0.70000 1.00000 0.70000 0.40000 0.00000 0.00000]

New Storage.Bat_0 bus1=b6 phases=3 kv=13.800 kWrated=600.00 kWhRated=2400.00 %stored=20 state=idling daily=CurvaBat_Bat_0 dispmode=follow %EffCharge=95 %EffDischarge=95
New Storage.Bat_1 bus1=b12 phases=3 kv=13.800 kWrated=1200.00 kWhRated=4800.00 %stored=20 state=idling daily=CurvaBat_Bat_1 dispmode=follow %EffCharge=95 %EffDischarge=95
New Storage.Bat_2 bus1=b14 phases=3 kv=13.800 kWrated=600.00 kWhRated=2400.00 %stored=20 state=idling daily=CurvaBat_Bat_2 dispmode=follow %EffCharge=95 %EffDischarge=95
New Storage.Bat_3 bus1=b10 phases=3 kv=13.800 kWrated=1800.00 kWhRated=7200.00 %stored=20 state=idling daily=CurvaBat_Bat_3 dispmode=follow %EffCharge=95 %EffDischarge=95
New Storage.Bat_4 bus1=b16 phases=3 kv=13.800 kWrated=1200.00 kWhRated=4800.00 %stored=20 state=idling daily=CurvaBat_Bat_4 dispmode=follow %EffCharge=95 %EffDischarge=95
New Storage.Bat_5 bus1=b15 phases=3 kv=13.800 kWrated=600.00 kWhRated=2400.00 %stored=20 state=idling daily=CurvaBat_Bat_5 dispmode=follow %EffCharge=95 %EffDischarge=95
New Storage.Bat_6 bus1=b12 phases=3 kv=13.800 kWrated=600.00 kWhRated=2400.00 %stored=20 state=idling daily=CurvaBat_Bat_6 dispmode=follow %EffCharge=95 %EffDischarge=95
New Storage.Bat_7 bus1=b9 phases=3 kv=13.800 kWrated=1200.00 kWhRated=4800.00 %stored=20 state=idling daily=CurvaBat_Bat_7 dispmode=follow %EffCharge=95 %EffDischarge=95
New Storage.Bat_8 bus1=b15 phases=3 kv=13.800 kWrated=300.00 kWhRated=1200.00 %stored=20 state=idling daily=CurvaBat_Bat_8 dispmode=follow %EffCharge=95 %EffDischarge=95
New Storage.Bat_9 bus1=b5 phases=3 kv=13.800 kWrated=600.00 kWhRated=2400.00 %stored=20 state=idling daily=CurvaBat_Bat_9 dispmode=follow %EffCharge=95 %EffDischarge=95
New Storage.Bat_10 bus1=b6 phases=3 kv=13.800 kWrated=600.00 kWhRated=2400.00 %stored=20 state=idling daily=CurvaBat_Bat_10 dispmode=follow %EffCharge=95 %EffDischarge=95
New Storage.Bat_11 bus1=b6 phases=3 kv=13.800 kWrated=1800.00 kWhRated=7200.00 %stored=20 state=idling daily=CurvaBat_Bat_11 dispmode=follow %EffCharge=95 %EffDischarge=95
New Storage.Bat_12 bus1=b2 phases=3 kv=13.800 kWrated=300.00 kWhRated=1200.00 %stored=20 state=idling daily=CurvaBat_Bat_12 dispmode=follow %EffCharge=95 %EffDischarge=95
New Storage.Bat_13 bus1=b15 phases=3 kv=13.800 kWrated=600.00 kWhRated=2400.00 %stored=20 state=idling daily=CurvaBat_Bat_13 dispmode=follow %EffCharge=95 %EffDischarge=95
New Storage.Bat_14 bus1=b1 phases=3 kv=13.800 kWrated=1200.00 kWhRated=4800.00 %stored=20 state=idling daily=CurvaBat_Bat_14 dispmode=follow %EffCharge=95 %EffDischarge=95
New Storage.Bat_15 bus1=b8 phases=3 kv=13.800 kWrated=600.00 kWhRated=2400.00 %stored=20 state=idling daily=CurvaBat_Bat_15 dispmode=follow %EffCharge=95 %EffDischarge=95
New Storage.Bat_16 bus1=sourcebus phases=3 kv=13.800 kWrated=300.00 kWhRated=1200.00 %stored=20 state=idling daily=CurvaBat_Bat_16 dispmode=follow %EffCharge=95 %EffDischarge=95
New Storage.Bat_17 bus1=b8 phases=3 kv=13.800 kWrated=600.00 kWhRated=2400.00 %stored=20 state=idling daily=CurvaBat_Bat_17 dispmode=follow %EffCharge=95 %EffDischarge=95
New Storage.Bat_18 bus1=sourcebus phases=3 kv=13.800 kWrated=1800.00 kWhRated=7200.00 %stored=20 state=idling daily=CurvaBat_Bat_18 dispmode=follow %EffCharge=95 %EffDischarge=95
New Storage.Bat_19 bus1=b8 phases=3 kv=13.800 kWrated=1200.00 kWhRated=4800.00 %stored=20 state=idling daily=CurvaBat_Bat_19 dispmode=follow %EffCharge=95 %EffDischarge=95
New Storage.Bat_20 bus1=b16 phases=3 kv=13.800 kWrated=1200.00 kWhRated=4800.00 %stored=20 state=idling daily=CurvaBat_Bat_20 dispmode=follow %EffCharge=95 %EffDischarge=95
New Storage.Bat_21 bus1=b9 phases=3 kv=13.800 kWrated=300.00 kWhRated=1200.00 %stored=20 state=idling daily=CurvaBat_Bat_21 dispmode=follow %EffCharge=95 %EffDischarge=95
New Storage.Bat_22 bus1=b1 phases=3 kv=13.800 kWrated=300.00 kWhRated=1200.00 %stored=20 state=idling daily=CurvaBat_Bat_22 dispmode=follow %EffCharge=95 %EffDischarge=95
New Storage.Bat_23 bus1=b5 phases=3 kv=13.800 kWrated=1800.00 kWhRated=7200.00 %stored=20 state=idling daily=CurvaBat_Bat_23 dispmode=follow %EffCharge=95 %EffDischarge=95
New Storage.Bat_24 bus1=sourcebus phases=3 kv=13.800 kWrated=1800.00 kWhRated=7200.00 %stored=20 state=idling daily=CurvaBat_Bat_24 dispmode=follow %EffCharge=95 %EffDischarge=95
New Storage.Bat_25 bus1=b16 phases=3 kv=13.800 kWrated=300.00 kWhRated=1200.00 %stored=20 state=idling daily=CurvaBat_Bat_25 dispmode=follow %EffCharge=95 %EffDischarge=95
New Storage.Bat_26 bus1=b16 phases=3 kv=13.800 kWrated=1200.00 kWhRated=4800.00 %stored=20 state=idling daily=CurvaBat_Bat_26 dispmode=follow %EffCharge=95 %EffDischarge=95
New Storage.Bat_27 bus1=b7 phases=3 kv=13.800 kWrated=2400.00 kWhRated=9600.00 %stored=20 state=idling daily=CurvaBat_Bat_27 dispmode=follow %EffCharge=95 %EffDischarge=95
New Storage.Bat_28 bus1=b6 phases=3 kv=13.800 kWrated=300.00 kWhRated=1200.00 %stored=20 state=idling daily=CurvaBat_Bat_28 dispmode=follow %EffCharge=95 %EffDischarge=95
New Storage.Bat_29 bus1=b7 phases=3 kv=13.800 kWrated=1200.00 kWhRated=4800.00 %stored=20 state=idling daily=CurvaBat_Bat_29 dispmode=follow %EffCharge=95 %EffDischarge=95
New Storage.Bat_30 bus1=b16 phases=3 kv=13.800 kWrated=300.00 kWhRated=1200.00 %stored=20 state=idling daily=CurvaBat_Bat_30 dispmode=follow %EffCharge=95 %EffDischarge=95
New Storage.Bat_31 bus1=b14 phases=3 kv=13.800 kWrated=1800.00 kWhRated=7200.00 %stored=20 state=idling daily=CurvaBat_Bat_31 dispmode=follow %EffCharge=95 %EffDischarge=95
New Storage.Bat_32 bus1=b5 phases=3 kv=13.800 kWrated=600.00 kWhRated=2400.00 %stored=20 state=idling daily=CurvaBat_Bat_32 dispmode=follow %EffCharge=95 %EffDischarge=95
New Storage.Bat_33 bus1=b11 phases=3 kv=13.800 kWrated=1200.00 kWhRated=4800.00 %stored=20 state=idling daily=CurvaBat_Bat_33 dispmode=follow %EffCharge=95 %EffDischarge=95
New Storage.Bat_34 bus1=b4 phases=3 kv=13.800 kWrated=1800.00 kWhRated=7200.00 %stored=20 state=idling daily=CurvaBat_Bat_34 dispmode=follow %EffCharge=95 %EffDischarge=95
New Storage.Bat_35 bus1=b8 phases=3 kv=13.800 kWrated=300.00 kWhRated=1200.00 %stored=20 state=idling daily=CurvaBat_Bat_35 dispmode=follow %EffCharge=95 %EffDischarge=95
New Storage.Bat_36 bus1=b8 phases=3 kv=13.800 kWrated=300.00 kWhRated=1200.00 %stored=20 state=idling daily=CurvaBat_Bat_36 dispmode=follow %EffCharge=95 %EffDischarge=95
New Storage.Bat_37 bus1=b13 phases=3 kv=13.800 kWrated=1800.00 kWhRated=7200.00 %stored=20 state=idling daily=CurvaBat_Bat_37 dispmode=follow %EffCharge=95 %EffDischarge=95
New Storage.Bat_38 bus1=b8 phases=3 kv=13.800 kWrated=1200.00 kWhRated=4800.00 %stored=20 state=idling daily=CurvaBat_Bat_38 dispmode=follow %EffCharge=95 %EffDischarge=95
New Storage.Bat_39 bus1=b13 phases=3 kv=13.800 kWrated=1200.00 kWhRated=4800.00 %stored=20 state=idling daily=CurvaBat_Bat_39 dispmode=follow %EffCharge=95 %EffDischarge=95
New Storage.Bat_40 bus1=b11 phases=3 kv=13.800 kWrated=1200.00 kWhRated=4800.00 %stored=20 state=idling daily=CurvaBat_Bat_40 dispmode=follow %EffCharge=95 %EffDischarge=95
New Storage.Bat_41 bus1=b8 phases=3 kv=13.800 kWrated=1200.00 kWhRated=4800.00 %stored=20 state=idling daily=CurvaBat_Bat_41 dispmode=follow %EffCharge=95 %EffDischarge=95
New Storage.Bat_42 bus1=b9 phases=3 kv=13.800 kWrated=1800.00 kWhRated=7200.00 %stored=20 state=idling daily=CurvaBat_Bat_42 dispmode=follow %EffCharge=95 %EffDischarge=95
New Storage.Bat_43 bus1=b4 phases=3 kv=13.800 kWrated=600.00 kWhRated=2400.00 %stored=20 state=idling daily=CurvaBat_Bat_43 dispmode=follow %EffCharge=95 %EffDischarge=95
New Storage.Bat_44 bus1=b15 phases=3 kv=13.800 kWrated=1200.00 kWhRated=4800.00 %stored=20 state=idling daily=CurvaBat_Bat_44 dispmode=follow %EffCharge=95 %EffDischarge=95
New Storage.Bat_45 bus1=b8 phases=3 kv=13.800 kWrated=1200.00 kWhRated=4800.00 %stored=20 state=idling daily=CurvaBat_Bat_45 dispmode=follow %EffCharge=95 %EffDischarge=95
New Storage.Bat_46 bus1=b6 phases=3 kv=13.800 kWrated=1200.00 kWhRated=4800.00 %stored=20 state=idling daily=CurvaBat_Bat_46 dispmode=follow %EffCharge=95 %EffDischarge=95
New Storage.Bat_47 bus1=b11 phases=3 kv=13.800 kWrated=300.00 kWhRated=1200.00 %stored=20 state=idling daily=CurvaBat_Bat_47 dispmode=follow %EffCharge=95 %EffDischarge=95
New Storage.Bat_48 bus1=b12 phases=3 kv=13.800 kWrated=1200.00 kWhRated=4800.00 %stored=20 state=idling daily=CurvaBat_Bat_48 dispmode=follow %EffCharge=95 %EffDischarge=95
New Storage.Bat_49 bus1=b15 phases=3 kv=13.800 kWrated=1200.00 kWhRated=4800.00 %stored=20 state=idling daily=CurvaBat_Bat_49 dispmode=follow %EffCharge=95 %EffDischarge=95
New Storage.Bat_50 bus1=b5 phases=3 kv=13.800 kWrated=300.00 kWhRated=1200.00 %stored=20 state=idling daily=CurvaBat_Bat_50 dispmode=follow %EffCharge=95 %EffDischarge=95
New Storage.Bat_51 bus1=b16 phases=3 kv=13.800 kWrated=300.00 kWhRated=1200.00 %stored=20 state=idling daily=CurvaBat_Bat_51 dispmode=follow %EffCharge=95 %EffDischarge=95
New Storage.Bat_52 bus1=b14 phases=3 kv=13.800 kWrated=600.00 kWhRated=2400.00 %stored=20 state=idling daily=CurvaBat_Bat_52 dispmode=follow %EffCharge=95 %EffDischarge=95
New Storage.Bat_53 bus1=b6 phases=3 kv=13.800 kWrated=1200.00 kWhRated=4800.00 %stored=20 state=idling daily=CurvaBat_Bat_53 dispmode=follow %EffCharge=95 %EffDischarge=95
New Storage.Bat_54 bus1=b4 phases=3 kv=13.800 kWrated=300.00 kWhRated=1200.00 %stored=20 state=idling daily=CurvaBat_Bat_54 dispmode=follow %EffCharge=95 %EffDischarge=95
New Storage.Bat_55 bus1=b16 phases=3 kv=13.800 kWrated=300.00 kWhRated=1200.00 %stored=20 state=idling daily=CurvaBat_Bat_55 dispmode=follow %EffCharge=95 %EffDischarge=95
New Storage.Bat_56 bus1=b12 phases=3 kv=13.800 kWrated=1200.00 kWhRated=4800.00 %stored=20 state=idling daily=CurvaBat_Bat_56 dispmode=follow %EffCharge=95 %EffDischarge=95
New Storage.Bat_57 bus1=b15 phases=3 kv=13.800 kWrated=300.00 kWhRated=1200.00 %stored=20 state=idling daily=CurvaBat_Bat_57 dispmode=follow %EffCharge=95 %EffDischarge=95
New Storage.Bat_58 bus1=b12 phases=3 kv=13.800 kWrated=300.00 kWhRated=1200.00 %stored=20 state=idling daily=CurvaBat_Bat_58 dispmode=follow %EffCharge=95 %EffDischarge=95
New Storage.Bat_59 bus1=b12 phases=3 kv=13.800 kWrated=300.00 kWhRated=1200.00 %stored=20 state=idling daily=CurvaBat_Bat_59 dispmode=follow %EffCharge=95 %EffDischarge=95
New Storage.Bat_60 bus1=b12 phases=3 kv=13.800 kWrated=300.00 kWhRated=1200.00 %stored=20 state=idling daily=CurvaBat_Bat_60 dispmode=follow %EffCharge=95 %EffDischarge=95
New Storage.Bat_61 bus1=b16 phases=3 kv=13.800 kWrated=2400.00 kWhRated=9600.00 %stored=20 state=idling daily=CurvaBat_Bat_61 dispmode=follow %EffCharge=95 %EffDischarge=95
New Storage.Bat_62 bus1=b6 phases=3 kv=13.800 kWrated=1200.00 kWhRated=4800.00 %stored=20 state=idling daily=CurvaBat_Bat_62 dispmode=follow %EffCharge=95 %EffDischarge=95
New Storage.Bat_63 bus1=b16 phases=3 kv=13.800 kWrated=2400.00 kWhRated=9600.00 %stored=20 state=idling daily=CurvaBat_Bat_63 dispmode=follow %EffCharge=95 %EffDischarge=95
New Storage.Bat_64 bus1=b5 phases=3 kv=13.800 kWrated=300.00 kWhRated=1200.00 %stored=20 state=idling daily=CurvaBat_Bat_64 dispmode=follow %EffCharge=95 %EffDischarge=95
New Storage.Bat_65 bus1=b2 phases=3 kv=13.800 kWrated=300.00 kWhRated=1200.00 %stored=20 state=idling daily=CurvaBat_Bat_65 dispmode=follow %EffCharge=95 %EffDischarge=95
New Storage.Bat_66 bus1=b14 phases=3 kv=13.800 kWrated=1200.00 kWhRated=4800.00 %stored=20 state=idling daily=CurvaBat_Bat_66 dispmode=follow %EffCharge=95 %EffDischarge=95